Title: About

----

Builder: [{"content":[],"id":"d1c4165b-9e5d-4395-8b5e-0cc74b622ef2","isHidden":false,"type":"logo_strip"},{"content":{"heading":"Meet the team","teammembers":[{"image":["file://3jVi19Eqm0qQkTnR"],"membername":"Darren Hayes","position":"MEngSc, Director","bio":"Experienced technical and operations director. Demonstrated history of successfully developing marine technology and executing complex marine operations in the marine renewable energy sector."},{"image":["file://VcqEIqTn9mTs5DIs"],"membername":"Dr. Tom Doyle","position":"PhD, Director","bio":"Marine structural engineer and technical manager. Experienced in delivery of high-complexity structural and mechanical offshore systems as both technical expert and project lead."},{"image":["file://ITWo6ToCPbYWc6vc"],"membername":"Danny Golden","position":"MSc CEng, Director","bio":"Civil Engineer and Naval Architect. Experienced in delivering complex and high value international projects across the marine, heavy civils and energy industries including foundation design spanning fixed & floating wind, and tidal energy."},{"image":["file://JbwJdpV5Q1NdtSBi"],"membername":"Dr. Syed Hasan","position":"PhD, Senior Research Engineer","bio":"Dr Hasan graduated with a PhD in Ocean Engineering at the Indian Institute of Technology, Madras. Hasan has extensive experience across academia and industry as a Naval Architect & Ocean Engineer with excellent domain knowledge & industry experience regarding marine structural FEA & hydrodynamic/mooring analyses."},{"image":["file://fznrDxPdCX96cBXK"],"membername":"Jonathan Gregg","position":"MPhil, Design Engineer","bio":"Jonathan is a graduate of Cambridge University with an MPhil in Energy Technologies. Prior to this degree he obtained an MEng in Civil and Environmental Engineering at Queen’s University Belfast.Jonathan strives to develop a sustainable future through offshore energy and is eager to achieve this through Dublin Offshore."},{"image":["file://r0POaREFZD9GT3cI"],"membername":"Dr Milad Moghtadaei","position":"PhD, Naval Architect","bio":"Milad is a Naval Architect specialising in advanced hydro-aero-elastic modelling of floating offshore wind structures. With a Ph.D. from Queen's University Belfast and an MSc from the University of Southampton, he possesses deep expertise in offshore design standards and tools like OrcaFlex and OpenFAST. His experience includes contributions to key industry projects and research publications, focusing on load assessments and coupled dynamic simulations."},{"image":["file://yyUg2a7hQDytmUA8"],"membername":"Christopher Stapleton","position":"MEng, Technical Project Engineer","bio":"Christopher is a Mechanical Engineer with experience in both the water and wind industries. He is a graduate of UCD with a Master’s Degree in Mechanical Engineering. Christopher's master’s thesis focused on the development of novel deployable structures for space applications. He has joined Dublin Offshore to leverage his engineering expertise in advancing offshore wind & marine technology."}]},"id":"cc78e24f-848e-40b9-8638-0016bd50e7d3","isHidden":false,"type":"team"},{"content":{"textfill":"<h3>We are a global leader in mooring system innovation. Our Load Reduction Device (LRD) revolutionises the design and delivery of permanent mooring systems. We optimise moorings by improving performance while reducing cost, risk and addressing supply chain challenges.</h3>"},"id":"2f4e78bc-9dc8-49b9-9fac-9f71a2eca8c1","isHidden":false,"type":"text_fill"},{"content":{"location":"kirby","url":"","video":["file://jYfFCYzdNN7Pbi6v"],"poster":["file://GtwtEeluUi1Y2sjf"],"textoverlay":"<h2>Customised<br>Compliance</h2><p>LRD’s simplicity is its greatest strength. It rotates in response to wave-induced platform motion. Our unique design delivers both peak and fatigue load reduction and because it’s so simple it can be easily tailored to optimise mooring performance for every project.</p>"},"id":"4cd3fb0b-d8e0-4505-881d-8a80ca0a15d5","isHidden":false,"type":"full_width_video"}]

----

Metatitle: 

----

Metatemplate: 

----

Usetitletemplate: true

----

Metadescription: 

----

Ogtemplate: 

----

Useogtemplate: true

----

Ogdescription: 

----

Ogimage: []

----

Twittercardtype: 

----

Twitterauthor: 

----

Robotsindex: default

----

Robotsfollow: default

----

Robotsarchive: default

----

Robotsimageindex: default

----

Robotssnippet: default

----

Metainherit: 

----

Uuid: mB0Kk3EUxiskRvUV